Version 4
SHEET 1 5120 680
WIRE 2864 -288 1600 -288
WIRE 3024 -288 2960 -288
WIRE 3152 -288 3024 -288
WIRE 3312 -288 3232 -288
WIRE 3616 -288 3312 -288
WIRE 3712 -288 3616 -288
WIRE 3760 -288 3712 -288
WIRE 3872 -288 3824 -288
WIRE 1920 -208 1776 -208
WIRE 2576 -208 1920 -208
WIRE 2832 -208 2704 -208
WIRE 3312 -208 3312 -288
WIRE 1984 -160 1872 -160
WIRE 1920 -144 1920 -208
WIRE 2576 -144 2576 -208
WIRE 2704 -144 2704 -208
WIRE 1872 -128 1872 -160
WIRE 1888 -128 1872 -128
WIRE 1984 -112 1984 -160
WIRE 1984 -112 1952 -112
WIRE 2448 -112 1984 -112
WIRE 3312 -112 3312 -128
WIRE 3312 -112 3264 -112
WIRE 3872 -112 3872 -288
WIRE 1888 -96 1872 -96
WIRE 3024 -96 3024 -288
WIRE 3312 -96 3312 -112
WIRE 3616 -96 3616 -288
WIRE 3712 -96 3712 -288
WIRE 2832 -64 2832 -208
WIRE 2448 -48 2448 -112
WIRE 2800 -48 2448 -48
WIRE 2944 -32 2944 -240
WIRE 2944 -32 2864 -32
WIRE 2576 -16 2576 -64
WIRE 2800 -16 2576 -16
WIRE 3312 0 3312 -16
WIRE 2576 48 2576 -16
WIRE 1600 64 1600 -288
WIRE 1776 64 1776 -208
WIRE 3312 96 3312 80
WIRE 1872 160 1872 -96
WIRE 3264 160 3264 -112
WIRE 3264 160 1872 160
WIRE 1600 192 1600 144
WIRE 1776 192 1776 144
WIRE 1776 192 1600 192
WIRE 2576 192 2576 128
WIRE 2576 192 1776 192
WIRE 2704 192 2704 -64
WIRE 2704 192 2576 192
WIRE 2832 192 2832 0
WIRE 2832 192 2704 192
WIRE 3024 192 3024 -32
WIRE 3024 192 2832 192
WIRE 3312 192 3312 176
WIRE 3312 192 3024 192
WIRE 3616 192 3616 -32
WIRE 3616 192 3312 192
WIRE 3712 192 3712 -32
WIRE 3712 192 3616 192
WIRE 3872 192 3872 -32
WIRE 3872 192 3712 192
WIRE 1600 208 1600 192
WIRE 1920 208 1920 -80
WIRE 1920 208 1840 208
WIRE 2512 208 1920 208
WIRE 1776 224 1776 192
WIRE 1776 320 1776 304
WIRE 1840 320 1840 208
WIRE 1840 320 1776 320
FLAG 1600 208 0
SYMBOL voltage 1600 48 R0
SYMATTR InstName ContactWire
SYMATTR Value 1000
SYMBOL Misc\\NIGBT 2864 -240 R270
SYMATTR InstName Z1
SYMATTR Value irg4pc50w
SYMATTR Prefix X
SYMBOL res 3296 -224 R0
SYMATTR InstName R1
SYMATTR Value 47k
SYMBOL res 3296 80 R0
SYMATTR InstName R2
SYMATTR Value 4.7k
SYMBOL cap 3696 -96 R0
SYMATTR InstName Battery
SYMATTR Value 4m
SYMATTR SpiceLine Rser=25m
SYMBOL ind 3248 -304 R90
WINDOW 0 5 56 VBottom 2
WINDOW 3 32 56 VTop 2
SYMATTR InstName L1
SYMATTR Value 0.1
SYMBOL schottky 3040 -32 R180
WINDOW 0 24 64 Left 2
WINDOW 3 24 0 Invisible 2
SYMATTR InstName D1
SYMATTR Value RBR30T60A
SYMATTR Description Diode
SYMATTR Type diode
SYMBOL zener 3632 -32 R180
WINDOW 0 24 64 Left 2
WINDOW 3 24 0 Left 2
SYMATTR InstName D2
SYMATTR Value BZX84B27VL
SYMATTR Description Diode
SYMATTR Type diode
SYMBOL res 3856 -128 R0
SYMATTR InstName Load
SYMATTR Value 5
SYMBOL Opamps\\UniversalOpamp2 1920 -112 R0
SYMATTR InstName U1
SYMBOL voltage 1776 48 R0
SYMATTR InstName 24V
SYMATTR Value 24
SYMBOL res 2560 -160 R0
SYMATTR InstName R4
SYMATTR Value 47k
SYMBOL res 2560 32 R0
SYMATTR InstName R5
SYMATTR Value 5.217k
SYMBOL res 3296 -16 R0
SYMATTR InstName R6
SYMATTR Value 470
SYMBOL res 3296 -112 R0
SYMATTR InstName R7
SYMATTR Value 47
SYMBOL voltage 1776 208 R0
SYMATTR InstName -24V
SYMATTR Value 24
SYMBOL voltage 2704 -160 R0
WINDOW 0 24 16 Invisible 2
SYMATTR InstName 40
SYMATTR Value 40
SYMBOL Opamps\\UniversalOpamp2 2832 -32 R0
SYMATTR InstName U5
SYMBOL diode 3760 -272 R270
WINDOW 0 32 32 VTop 2
WINDOW 3 0 32 VBottom 2
SYMATTR InstName D3
TEXT 1520 240 Left 2 !.tran 1 startup
TEXT 1520 264 Left 2 !.inc irg4pc50w.spi
