Version 4
SHEET 1 1772 680
WIRE 128 -288 16 -288
WIRE 272 -288 128 -288
WIRE 1248 -288 272 -288
WIRE 1712 -288 1344 -288
WIRE 272 -256 272 -288
WIRE 272 -112 272 -176
WIRE 432 -112 272 -112
WIRE 720 -112 688 -112
WIRE 848 -112 720 -112
WIRE 1088 -112 848 -112
WIRE 272 -16 272 -112
WIRE 432 -16 272 -16
WIRE 1088 -16 1088 -112
WIRE 1712 0 1712 -288
WIRE 848 16 848 -112
WIRE 272 48 272 -16
WIRE 16 64 16 -288
WIRE 432 80 384 80
WIRE 720 80 720 -112
WIRE 720 80 688 80
WIRE 384 96 384 80
WIRE 16 192 16 144
WIRE 272 192 272 128
WIRE 272 192 16 192
WIRE 384 192 384 160
WIRE 384 192 272 192
WIRE 560 192 560 144
WIRE 560 192 384 192
WIRE 848 192 848 80
WIRE 848 192 560 192
WIRE 1088 192 1088 64
WIRE 1088 192 848 192
WIRE 1296 192 1296 -224
WIRE 1296 192 1088 192
WIRE 1712 192 1712 80
WIRE 1712 192 1296 192
WIRE 16 208 16 192
WIRE 0 0 0 0
FLAG 16 208 0
FLAG 128 -288 contact_wire
SYMBOL voltage 16 48 R0
WINDOW 123 0 0 Left 0
WINDOW 39 24 124 Left 2
SYMATTR SpiceLine Rser=0
SYMATTR InstName V1
SYMATTR Value 1000
SYMBOL res 256 -272 R0
SYMATTR InstName R1
SYMATTR Value 50k
SYMBOL res 256 32 R0
SYMATTR InstName R2
SYMATTR Value 500
SYMBOL res 1072 -32 R0
SYMATTR InstName R3
SYMATTR Value 1000
SYMBOL PowerProducts\\ADM7172-5.0 560 -16 R0
SYMATTR InstName U2
SYMBOL cap 368 96 R0
SYMATTR InstName C1
SYMATTR Value 1n
SYMBOL cap 832 16 R0
SYMATTR InstName C2
SYMATTR Value 4.7µ
SYMBOL res 1696 -16 R0
SYMATTR InstName R4
SYMATTR Value 0.5
SYMBOL npn 1248 -224 R270
SYMATTR InstName Q1
TEXT -16 232 Left 2 !.tran 1
