Version 4
SHEET 1 5120 1096
WIRE 2944 336 1344 336
WIRE 3440 336 2944 336
WIRE 3584 336 3440 336
WIRE 3920 336 3584 336
WIRE 4144 336 3920 336
WIRE 3440 416 3440 336
WIRE 3040 512 2848 512
WIRE 3584 528 3584 336
WIRE 3600 528 3584 528
WIRE 3616 528 3600 528
WIRE 3856 528 3824 528
WIRE 3440 544 3440 496
WIRE 4144 576 4144 336
WIRE 2944 592 2944 336
WIRE 3040 592 3040 512
WIRE 3248 592 3040 592
WIRE 3376 592 3328 592
WIRE 3600 592 3504 592
WIRE 3872 592 3824 592
WIRE 4096 592 4032 592
WIRE 2848 608 2848 512
WIRE 2912 608 2848 608
WIRE 3040 624 3040 592
WIRE 3040 624 2976 624
WIRE 1344 640 1344 336
WIRE 2912 640 2128 640
WIRE 3600 656 3568 656
WIRE 4032 656 4032 592
WIRE 4032 656 3824 656
WIRE 3440 672 3440 640
WIRE 3504 672 3504 592
WIRE 3504 672 3440 672
WIRE 2128 704 2128 640
WIRE 3440 704 3440 672
WIRE 4144 704 4144 672
WIRE 4224 704 4144 704
WIRE 3920 720 3920 336
WIRE 3920 720 3824 720
WIRE 4144 720 4144 704
WIRE 3568 784 3568 656
WIRE 3872 784 3872 592
WIRE 3872 784 3568 784
WIRE 4032 800 4032 656
WIRE 4096 800 4032 800
WIRE 3440 816 3440 784
WIRE 3568 816 3568 784
WIRE 3568 816 3440 816
WIRE 3440 848 3440 816
WIRE 1344 976 1344 720
WIRE 2128 976 2128 784
WIRE 2128 976 1344 976
WIRE 2944 976 2944 656
WIRE 2944 976 2128 976
WIRE 3440 976 3440 912
WIRE 3440 976 2944 976
WIRE 3856 976 3856 528
WIRE 3856 976 3440 976
WIRE 4144 976 4144 816
WIRE 4144 976 3856 976
WIRE 1344 1008 1344 976
FLAG 1344 1008 0
SYMBOL Misc\\NE555 3712 624 M0
SYMATTR InstName U1
SYMBOL voltage 1344 624 R0
WINDOW 123 0 0 Left 0
WINDOW 39 0 0 Left 0
SYMATTR InstName ControllerVoltage
SYMATTR Value 5
SYMBOL cap 3456 848 M0
SYMATTR InstName C4
SYMATTR Value 10nF
SYMBOL res 3456 688 M0
SYMATTR InstName R12
SYMATTR Value 68k
SYMBOL Opamps\\UniversalOpamp2 2944 624 R0
SYMATTR InstName U4
SYMBOL nmos 4096 720 R0
SYMATTR InstName M8
SYMBOL pmos 4096 672 M180
SYMATTR InstName M9
SYMBOL pnp 3376 640 M180
SYMATTR InstName Q2
SYMATTR Value 2N3906
SYMBOL res 3344 576 R90
WINDOW 0 0 56 VBottom 2
WINDOW 3 32 56 VTop 2
SYMATTR InstName R16
SYMATTR Value 100
SYMBOL res 3424 400 R0
SYMATTR InstName R13
SYMATTR Value 1k
SYMBOL voltage 2128 688 R0
WINDOW 123 0 0 Left 0
WINDOW 39 0 0 Left 0
SYMATTR InstName ControllerVoltage1
SYMATTR Value PULSE(2.4 3 0.2 0.001 0.001 1 2)
TEXT 1320 1080 Left 2 !.tran 0.4 startup
