Version 4
SHEET 1 5120 1096
WIRE 3440 336 2688 336
WIRE 3584 336 3440 336
WIRE 3920 336 3584 336
WIRE 4144 336 3920 336
WIRE 3440 352 3440 336
WIRE 3440 464 3440 432
WIRE 3056 512 2928 512
WIRE 3376 512 3136 512
WIRE 3584 528 3584 336
WIRE 3600 528 3584 528
WIRE 3616 528 3600 528
WIRE 3856 528 3824 528
WIRE 3440 576 3440 560
WIRE 4144 576 4144 336
WIRE 3600 592 3504 592
WIRE 3872 592 3824 592
WIRE 4096 592 4032 592
WIRE 2688 640 2688 336
WIRE 3600 656 3568 656
WIRE 4032 656 4032 592
WIRE 4032 656 3824 656
WIRE 3440 672 3440 656
WIRE 3504 672 3504 592
WIRE 3504 672 3440 672
WIRE 2928 704 2928 512
WIRE 3440 704 3440 672
WIRE 4144 704 4144 672
WIRE 4224 704 4144 704
WIRE 3920 720 3920 336
WIRE 3920 720 3824 720
WIRE 4144 720 4144 704
WIRE 3568 784 3568 656
WIRE 3872 784 3872 592
WIRE 3872 784 3568 784
WIRE 4032 800 4032 656
WIRE 4096 800 4032 800
WIRE 3440 816 3440 784
WIRE 3568 816 3568 784
WIRE 3568 816 3440 816
WIRE 3440 848 3440 816
WIRE 2688 976 2688 720
WIRE 2928 976 2928 784
WIRE 2928 976 2688 976
WIRE 3440 976 3440 912
WIRE 3440 976 2928 976
WIRE 3856 976 3856 528
WIRE 3856 976 3440 976
WIRE 4144 976 4144 816
WIRE 4144 976 3856 976
WIRE 2688 1008 2688 976
FLAG 2688 1008 0
SYMBOL Misc\\NE555 3712 624 M0
SYMATTR InstName U1
SYMBOL voltage 2688 624 R0
WINDOW 123 0 0 Left 0
WINDOW 39 0 0 Left 0
SYMATTR InstName ControllerVoltage
SYMATTR Value 5
SYMBOL cap 3456 848 M0
SYMATTR InstName C4
SYMATTR Value 2.2nF
SYMBOL res 3456 688 M0
SYMATTR InstName R12
SYMATTR Value 680
SYMBOL nmos 4096 720 R0
SYMATTR InstName M8
SYMBOL pmos 4096 672 M180
SYMATTR InstName M9
SYMBOL pnp 3376 560 M180
SYMATTR InstName Q2
SYMATTR Value 2N3906
SYMBOL res 3152 496 R90
WINDOW 0 0 56 VBottom 2
WINDOW 3 32 56 VTop 2
SYMATTR InstName R16
SYMATTR Value 73k
SYMBOL res 3424 336 R0
SYMATTR InstName R13
SYMATTR Value 1k
SYMBOL voltage 2928 688 R0
WINDOW 123 0 0 Left 0
WINDOW 39 0 0 Left 0
SYMATTR InstName ControllerVoltage1
SYMATTR Value PULSE(2.4 3 1m 1u 1u 1m 2m)
SYMBOL res 3424 560 R0
SYMATTR InstName R2
SYMATTR Value 3k
TEXT 2664 1080 Left 2 !.tran 10m startup
