Version 4
SHEET 1 5544 1148
WIRE 3584 -432 2624 -432
WIRE 3776 -432 3680 -432
WIRE 3840 -432 3776 -432
WIRE 3968 -432 3920 -432
WIRE 4080 -432 3968 -432
WIRE 4256 -432 4080 -432
WIRE 3296 -256 2800 -256
WIRE 3504 -256 3296 -256
WIRE 4080 -240 4080 -432
WIRE 3296 -192 3296 -256
WIRE 3504 -176 3504 -256
WIRE 3456 -160 3392 -160
WIRE 4256 -112 4256 -432
WIRE 3776 -96 3776 -432
WIRE 3968 -96 3968 -432
WIRE 3296 -80 3296 -112
WIRE 3392 -80 3392 -160
WIRE 3392 -80 3296 -80
WIRE 3296 -48 3296 -80
WIRE 3504 -48 3504 -80
WIRE 3664 -48 3664 -384
WIRE 3664 -48 3504 -48
WIRE 3504 -32 3504 -48
WIRE 3104 0 3008 0
WIRE 3232 0 3184 0
WIRE 4080 16 4080 -160
WIRE 3392 48 3392 -80
WIRE 3456 48 3392 48
WIRE 2624 64 2624 -432
WIRE 2800 64 2800 -256
WIRE 3008 80 3008 0
WIRE 2624 192 2624 144
WIRE 2800 192 2800 144
WIRE 2800 192 2624 192
WIRE 3008 192 3008 160
WIRE 3008 192 2800 192
WIRE 3296 192 3296 48
WIRE 3296 192 3008 192
WIRE 3504 192 3504 64
WIRE 3504 192 3296 192
WIRE 3776 192 3776 -32
WIRE 3776 192 3504 192
WIRE 3968 192 3968 -32
WIRE 3968 192 3776 192
WIRE 4080 192 4080 96
WIRE 4080 192 3968 192
WIRE 4256 192 4256 -32
WIRE 4256 192 4080 192
WIRE 2624 208 2624 192
FLAG 2624 208 0
SYMBOL voltage 2624 48 R0
WINDOW 123 0 0 Left 0
WINDOW 39 0 0 Left 0
SYMATTR InstName ContactWire
SYMATTR Value 1000
SYMBOL Misc\\NIGBT 3584 -384 R270
SYMATTR InstName Z1
SYMATTR Value irg4ph50s
SYMATTR Prefix X
SYMBOL ind 3936 -448 R90
WINDOW 0 5 56 VBottom 2
WINDOW 3 32 56 VTop 2
SYMATTR InstName L1
SYMATTR Value 0.01
SYMATTR SpiceLine Rser=23m
SYMBOL schottky 3792 -32 R180
WINDOW 0 24 64 Left 2
WINDOW 3 24 0 Invisible 2
SYMATTR InstName D1
SYMATTR Value RBR30T60A
SYMATTR Description Diode
SYMATTR Type diode
SYMBOL res 4240 -128 R0
SYMATTR InstName Load
SYMATTR Value 0.576
SYMBOL voltage 3008 64 R0
WINDOW 123 0 0 Left 0
WINDOW 39 0 0 Left 0
SYMATTR InstName Controller
SYMATTR Value PULSE(0 5 0.01 0 0 1.513u 10u)
SYMBOL cap 3952 -96 R0
SYMATTR InstName C1
SYMATTR Value 0.01
SYMATTR SpiceLine Rser=20m
SYMBOL nmos 3456 -32 R0
SYMATTR InstName M1
SYMBOL pmos 3456 -80 M180
SYMATTR InstName M2
SYMBOL res 3280 -208 R0
SYMATTR InstName R3
SYMATTR Value 47k
SYMBOL res 4064 -256 R0
SYMATTR InstName R14
SYMATTR Value 900k
SYMBOL res 4064 0 R0
SYMATTR InstName R15
SYMATTR Value 100k
SYMBOL voltage 2800 48 R0
WINDOW 123 0 0 Left 0
WINDOW 39 0 0 Left 0
SYMATTR InstName ContactWire1
SYMATTR Value 400
SYMBOL npn 3232 -48 R0
SYMATTR InstName Q1
SYMBOL res 3200 -16 R90
WINDOW 0 0 56 VBottom 2
WINDOW 3 32 56 VTop 2
SYMATTR InstName R1
SYMATTR Value 220
TEXT 2552 248 Left 2 !.tran 0.1 startup
TEXT 2552 288 Left 2 !.inc irg4ph50s.spi\n.inc sct2280ke.spi\n.inc FQB1P50.spi\n.inc FDPF3N50NZ.spi\n.inc FQP3P50.spi\n.inc C2M0280120D.spi\n.inc OptiMOS3_250V_LTSpice.spi\n.inc FDH15N50.spi
