Version 4
SHEET 1 6840 1148
WIRE 5056 -608 4944 -608
WIRE 5200 -608 5120 -608
WIRE 6464 -592 6352 -592
WIRE 6592 -592 6528 -592
WIRE 4944 -432 4944 -608
WIRE 4944 -432 2624 -432
WIRE 5040 -432 4944 -432
WIRE 5200 -432 5200 -608
WIRE 5200 -432 5136 -432
WIRE 5232 -432 5200 -432
WIRE 5296 -432 5232 -432
WIRE 5424 -432 5376 -432
WIRE 5536 -432 5424 -432
WIRE 6176 -432 5536 -432
WIRE 6352 -432 6352 -592
WIRE 6352 -432 6176 -432
WIRE 6448 -432 6352 -432
WIRE 6592 -432 6592 -592
WIRE 6592 -432 6544 -432
WIRE 6656 -432 6592 -432
WIRE 6176 -368 6176 -432
WIRE 4752 -256 2800 -256
WIRE 4960 -256 4752 -256
WIRE 4016 -240 2992 -240
WIRE 4528 -240 4016 -240
WIRE 5536 -240 5536 -432
WIRE 4016 -208 4016 -240
WIRE 4752 -192 4752 -256
WIRE 4528 -176 4528 -240
WIRE 4960 -176 4960 -256
WIRE 4480 -160 4416 -160
WIRE 4912 -160 4848 -160
WIRE 4016 -112 4016 -128
WIRE 4416 -112 4416 -160
WIRE 4416 -112 4016 -112
WIRE 6656 -112 6656 -432
WIRE 4016 -96 4016 -112
WIRE 5232 -96 5232 -432
WIRE 5424 -96 5424 -432
WIRE 4752 -80 4752 -112
WIRE 4848 -80 4848 -160
WIRE 4848 -80 4752 -80
WIRE 3840 -48 3216 -48
WIRE 3952 -48 3920 -48
WIRE 4752 -48 4752 -80
WIRE 4960 -48 4960 -80
WIRE 5120 -48 5120 -384
WIRE 5120 -48 4960 -48
WIRE 5536 -48 5536 -160
WIRE 5664 -48 5536 -48
WIRE 6176 -48 6176 -288
WIRE 6464 -48 6464 -384
WIRE 6464 -48 6176 -48
WIRE 4960 -32 4960 -48
WIRE 5888 -32 5776 -32
WIRE 6016 -32 5968 -32
WIRE 4528 0 4528 -80
WIRE 4576 0 4528 0
WIRE 4688 0 4656 0
WIRE 5536 16 5536 -48
WIRE 6176 16 6176 -48
WIRE 4528 32 4528 0
WIRE 5664 32 5664 -48
WIRE 3792 48 3568 48
WIRE 4016 48 4016 0
WIRE 4848 48 4848 -80
WIRE 4912 48 4848 48
WIRE 5776 48 5776 -32
WIRE 2624 64 2624 -432
WIRE 2800 64 2800 -256
WIRE 2992 64 2992 -240
WIRE 6016 64 6016 -32
WIRE 6112 64 6016 64
WIRE 3216 80 3216 -48
WIRE 3568 80 3568 48
WIRE 3792 96 3792 48
WIRE 3840 96 3792 96
WIRE 3952 96 3920 96
WIRE 4416 112 4416 -112
WIRE 4480 112 4416 112
WIRE 2624 192 2624 144
WIRE 2800 192 2800 144
WIRE 2800 192 2624 192
WIRE 2992 192 2992 144
WIRE 2992 192 2800 192
WIRE 3216 192 3216 160
WIRE 3216 192 2992 192
WIRE 3568 192 3568 160
WIRE 3568 192 3216 192
WIRE 4016 192 4016 144
WIRE 4016 192 3568 192
WIRE 4528 192 4528 128
WIRE 4528 192 4016 192
WIRE 4752 192 4752 48
WIRE 4752 192 4528 192
WIRE 4960 192 4960 64
WIRE 4960 192 4752 192
WIRE 5232 192 5232 -32
WIRE 5232 192 4960 192
WIRE 5424 192 5424 -32
WIRE 5424 192 5232 192
WIRE 5536 192 5536 96
WIRE 5536 192 5424 192
WIRE 5664 192 5664 96
WIRE 5664 192 5536 192
WIRE 5776 192 5776 128
WIRE 5776 192 5664 192
WIRE 6176 192 6176 112
WIRE 6176 192 5776 192
WIRE 6656 192 6656 -32
WIRE 6656 192 6176 192
WIRE 2624 208 2624 192
FLAG 2624 208 0
SYMBOL voltage 2624 48 R0
WINDOW 123 0 0 Left 0
WINDOW 39 0 0 Left 0
SYMATTR InstName ContactWire
SYMATTR Value 1000
SYMBOL Misc\\NIGBT 5040 -384 R270
SYMATTR InstName Z1
SYMATTR Value irg4ph50s
SYMATTR Prefix X
SYMBOL ind 5392 -448 R90
WINDOW 0 5 56 VBottom 2
WINDOW 3 32 56 VTop 2
SYMATTR InstName L1
SYMATTR Value 0.01
SYMATTR SpiceLine Rser=23m
SYMBOL schottky 5248 -32 R180
WINDOW 0 24 64 Left 2
WINDOW 3 24 0 Invisible 2
SYMATTR InstName D1
SYMATTR Value RBR30T60A
SYMATTR Description Diode
SYMATTR Type diode
SYMBOL res 6640 -128 R0
SYMATTR InstName Load
SYMATTR Value 0.576
SYMBOL voltage 3568 64 R0
WINDOW 123 0 0 Left 0
WINDOW 39 0 0 Left 0
SYMATTR InstName Controller
SYMATTR Value PULSE(0 3.3 0 0 0 1u 10u)
SYMBOL cap 5408 -96 R0
SYMATTR InstName C1
SYMATTR Value 0.01
SYMATTR SpiceLine Rser=20m
SYMBOL nmos 4912 -32 R0
SYMATTR InstName M1
SYMBOL pmos 4912 -80 M180
SYMATTR InstName M2
SYMBOL res 4736 -208 R0
SYMATTR InstName R3
SYMATTR Value 47k
SYMBOL res 5520 -256 R0
SYMATTR InstName R14
SYMATTR Value 900k
SYMBOL res 5520 0 R0
SYMATTR InstName R15
SYMATTR Value 100k
SYMBOL voltage 2800 48 R0
WINDOW 123 0 0 Left 0
WINDOW 39 0 0 Left 0
SYMATTR InstName DriverSource
SYMATTR Value 400
SYMBOL npn 4688 -48 R0
SYMATTR InstName Q1
SYMBOL voltage 2992 48 R0
WINDOW 123 0 0 Left 0
WINDOW 39 0 0 Left 0
SYMATTR InstName ControllerSource
SYMATTR Value 5
SYMBOL npn 3952 48 R0
SYMATTR InstName Q2
SYMBOL npn 3952 -96 R0
SYMATTR InstName Q3
SYMBOL res 4000 -224 R0
SYMATTR InstName R2
SYMATTR Value 220
SYMBOL voltage 3216 64 R0
WINDOW 123 0 0 Left 0
WINDOW 39 0 0 Left 0
SYMATTR InstName ControllerGate
SYMATTR Value PULSE(0 3.3 0.01 0 0 1 1)
SYMBOL res 3936 80 R90
WINDOW 0 0 56 VBottom 2
WINDOW 3 32 56 VTop 2
SYMATTR InstName R1
SYMATTR Value 220
SYMBOL res 3936 -64 R90
WINDOW 0 0 56 VBottom 2
WINDOW 3 32 56 VTop 2
SYMATTR InstName R4
SYMATTR Value 220
SYMBOL pmos 4480 -80 M180
SYMATTR InstName M3
SYMBOL nmos 4480 32 R0
SYMATTR InstName M4
SYMBOL res 4672 -16 R90
WINDOW 0 0 56 VBottom 2
WINDOW 3 32 56 VTop 2
SYMATTR InstName R5
SYMATTR Value 220
SYMBOL voltage 5776 32 R0
WINDOW 123 0 0 Left 0
WINDOW 39 0 0 Left 0
SYMATTR InstName OutputGate
SYMATTR Value PULSE(0 3.3 0.024 0 0 1 1)
SYMBOL npn 6112 16 R0
SYMATTR InstName Q4
SYMBOL res 6160 -384 R0
SYMATTR InstName R6
SYMATTR Value 10k
SYMBOL res 5984 -48 R90
WINDOW 0 0 56 VBottom 2
WINDOW 3 32 56 VTop 2
SYMATTR InstName R8
SYMATTR Value 220
SYMBOL pmos 6544 -384 M270
SYMATTR InstName M7
SYMATTR Value HAT1072H
SYMBOL cap 5648 32 R0
SYMATTR InstName C2
SYMATTR Value 2.2p
SYMBOL diode 6528 -608 R90
WINDOW 0 0 32 VBottom 2
WINDOW 3 32 32 VTop 2
SYMATTR InstName D2
SYMBOL diode 5120 -624 R90
WINDOW 0 0 32 VBottom 2
WINDOW 3 32 32 VTop 2
SYMATTR InstName D3
TEXT 2552 248 Left 2 !.tran 0.1 startup
TEXT 2552 288 Left 2 !.inc irg4ph50s.spi\n.inc sct2280ke.spi\n.inc FQB1P50.spi\n.inc FDPF3N50NZ.spi\n.inc FQP3P50.spi\n.inc C2M0280120D.spi\n.inc OptiMOS3_250V_LTSpice.spi\n.inc FDH15N50.spi
