Version 4
SHEET 1 5120 680
WIRE 1744 -288 1120 -288
WIRE 1920 -288 1744 -288
WIRE 2816 -288 1920 -288
WIRE 3168 -288 2816 -288
WIRE 3648 -288 3264 -288
WIRE 3776 -288 3648 -288
WIRE 3904 -288 3856 -288
WIRE 4368 -288 3904 -288
WIRE 3088 -256 2080 -256
WIRE 2816 -224 2816 -288
WIRE 1744 -192 1744 -288
WIRE 3088 -176 3088 -256
WIRE 3040 -160 2976 -160
WIRE 1920 -112 1920 -288
WIRE 4368 -112 4368 -288
WIRE 3648 -96 3648 -288
WIRE 3904 -96 3904 -288
WIRE 2816 -64 2816 -144
WIRE 2816 -64 2320 -64
WIRE 2976 -64 2976 -160
WIRE 2976 -64 2816 -64
WIRE 2320 -48 2320 -64
WIRE 2688 -48 2320 -48
WIRE 3088 -48 3088 -80
WIRE 3248 -48 3248 -240
WIRE 3248 -48 3088 -48
WIRE 1744 -32 1744 -112
WIRE 1872 -32 1744 -32
WIRE 3088 -32 3088 -48
WIRE 1920 16 1920 -16
WIRE 1968 16 1920 16
WIRE 2080 16 2080 -256
WIRE 2080 16 2048 16
WIRE 2080 32 2080 16
WIRE 1744 48 1744 -32
WIRE 1920 48 1920 16
WIRE 2976 48 2976 -64
WIRE 3040 48 2976 48
WIRE 1120 64 1120 -288
WIRE 2816 64 2816 16
WIRE 2320 80 2320 -48
WIRE 2688 144 2688 -48
WIRE 2768 144 2688 144
WIRE 1120 192 1120 144
WIRE 1744 192 1744 128
WIRE 1744 192 1120 192
WIRE 1920 192 1920 128
WIRE 1920 192 1744 192
WIRE 2080 192 2080 96
WIRE 2080 192 1920 192
WIRE 2320 192 2320 160
WIRE 2320 192 2080 192
WIRE 2816 192 2816 160
WIRE 2816 192 2320 192
WIRE 3088 192 3088 64
WIRE 3088 192 2816 192
WIRE 3648 192 3648 -32
WIRE 3648 192 3088 192
WIRE 3904 192 3904 -32
WIRE 3904 192 3648 192
WIRE 4368 192 4368 -32
WIRE 4368 192 3904 192
WIRE 1120 208 1120 192
FLAG 1120 208 0
SYMBOL voltage 1120 48 R0
WINDOW 123 0 0 Left 0
WINDOW 39 0 0 Left 0
SYMATTR InstName ContactWire
SYMATTR Value 1000
SYMBOL Misc\\NIGBT 3168 -240 R270
SYMATTR InstName Z1
SYMATTR Value irg4ph50s
SYMATTR Prefix X
SYMBOL ind 3872 -304 R90
WINDOW 0 5 56 VBottom 2
WINDOW 3 32 56 VTop 2
SYMATTR InstName L1
SYMATTR Value 0.01
SYMBOL schottky 3664 -32 R180
WINDOW 0 24 64 Left 2
WINDOW 3 24 0 Invisible 2
SYMATTR InstName D1
SYMATTR Value RBR30T60A
SYMATTR Description Diode
SYMATTR Type diode
SYMBOL res 4352 -128 R0
SYMATTR InstName Load
SYMATTR Value 0.576
SYMBOL voltage 2320 64 R0
WINDOW 123 0 0 Left 0
WINDOW 39 0 0 Left 0
SYMATTR InstName Controller
SYMATTR Value PULSE(500 0 0.1 0 0 1u 10u)
SYMBOL cap 3888 -96 R0
SYMATTR InstName C1
SYMATTR Value 0.01
SYMBOL nmos 3040 -32 R0
SYMATTR InstName M1
SYMATTR Value SCT2280KE
SYMATTR Prefix X
SYMBOL pmos 3040 -80 M180
SYMATTR InstName M2
SYMBOL nmos 2768 64 R0
SYMATTR InstName M3
SYMBOL res 2800 -240 R0
SYMATTR InstName R3
SYMATTR Value 100k
SYMBOL res 2800 -80 R0
SYMATTR InstName R4
SYMATTR Value 1k
SYMBOL nmos 1872 -112 R0
SYMATTR InstName M4
SYMATTR Value SCT2280KE
SYMATTR Prefix X
SYMBOL res 1904 32 R0
SYMATTR InstName R5
SYMATTR Value 10k
SYMBOL res 1728 32 R0
SYMATTR InstName R6
SYMATTR Value 10Meg
SYMBOL res 1728 -208 R0
SYMATTR InstName R7
SYMATTR Value 22Meg
SYMBOL cap 2064 32 R0
SYMATTR InstName C2
SYMATTR Value 10µ
SYMBOL res 2064 0 R90
WINDOW 0 0 56 VBottom 2
WINDOW 3 32 56 VTop 2
SYMATTR InstName R1
SYMATTR Value 10
TEXT 1040 240 Left 2 !.tran 0.4 startup
TEXT 1040 264 Left 2 !.inc irg4ph50s.spi\n.inc sct2280ke.spi\n.inc FQB1P50.spi
