Version 4
SHEET 1 5120 680
WIRE 3056 -288 1120 -288
WIRE 3168 -288 3056 -288
WIRE 3648 -288 3264 -288
WIRE 3776 -288 3648 -288
WIRE 3904 -288 3856 -288
WIRE 4368 -288 3904 -288
WIRE 3056 -160 3056 -288
WIRE 3104 -160 3056 -160
WIRE 3248 -160 3248 -240
WIRE 3248 -160 3184 -160
WIRE 4368 -112 4368 -288
WIRE 3648 -96 3648 -288
WIRE 3904 -96 3904 -288
WIRE 3248 -80 3248 -160
WIRE 3200 0 2944 0
WIRE 2944 32 2944 0
WIRE 1120 64 1120 -288
WIRE 1376 64 1376 -48
WIRE 3248 64 3248 16
WIRE 1120 192 1120 144
WIRE 1376 192 1376 144
WIRE 1376 192 1120 192
WIRE 2944 192 2944 112
WIRE 2944 192 1376 192
WIRE 3248 192 3248 144
WIRE 3248 192 2944 192
WIRE 3648 192 3648 -32
WIRE 3648 192 3248 192
WIRE 3904 192 3904 -32
WIRE 3904 192 3648 192
WIRE 4368 192 4368 -32
WIRE 4368 192 3904 192
WIRE 1120 208 1120 192
FLAG 1120 208 0
SYMBOL voltage 1120 48 R0
WINDOW 123 0 0 Left 0
WINDOW 39 0 0 Left 0
SYMATTR InstName ContactWire
SYMATTR Value 1000
SYMBOL Misc\\NIGBT 3168 -240 R270
SYMATTR InstName Z1
SYMATTR Value irg4ph50s
SYMATTR Prefix X
SYMBOL ind 3872 -304 R90
WINDOW 0 5 56 VBottom 2
WINDOW 3 32 56 VTop 2
SYMATTR InstName L1
SYMATTR Value 0.01
SYMBOL schottky 3664 -32 R180
WINDOW 0 24 64 Left 2
WINDOW 3 24 0 Invisible 2
SYMATTR InstName D1
SYMATTR Value RBR30T60A
SYMATTR Description Diode
SYMATTR Type diode
SYMBOL res 4352 -128 R0
SYMATTR InstName Load
SYMATTR Value 0.576
SYMBOL voltage 2944 16 R0
WINDOW 123 0 0 Left 0
WINDOW 39 0 0 Left 0
SYMATTR InstName Controller
SYMATTR Value PULSE(1000 0 0.1 0 0 1u 50u)
SYMBOL cap 3888 -96 R0
SYMATTR InstName C1
SYMATTR Value 0.01
SYMBOL voltage 1376 48 R0
WINDOW 123 0 0 Left 0
WINDOW 39 0 0 Left 0
SYMATTR InstName InternalSource
SYMATTR Value 5
SYMBOL Misc\\NIGBT 3200 -80 R0
SYMATTR InstName Z2
SYMATTR Value irg4ph50s
SYMATTR Prefix X
SYMBOL res 3200 -176 R90
WINDOW 0 0 56 VBottom 2
WINDOW 3 32 56 VTop 2
SYMATTR InstName R1
SYMATTR Value 1
SYMBOL res 3232 48 R0
SYMATTR InstName R2
SYMATTR Value 100
TEXT 1040 240 Left 2 !.tran 0.4 startup
TEXT 1040 264 Left 2 !.inc irg4ph50s.spi
