Version 4
SHEET 1 5120 680
WIRE 2784 -288 1120 -288
WIRE 3072 -288 2784 -288
WIRE 3168 -288 3072 -288
WIRE 3648 -288 3264 -288
WIRE 3776 -288 3648 -288
WIRE 3904 -288 3856 -288
WIRE 4368 -288 3904 -288
WIRE 2784 -256 2784 -288
WIRE 3072 -128 3072 -288
WIRE 2784 -112 2784 -176
WIRE 2976 -112 2784 -112
WIRE 3024 -112 2976 -112
WIRE 4368 -112 4368 -288
WIRE 3648 -96 3648 -288
WIRE 3904 -96 3904 -288
WIRE 2784 -48 2784 -112
WIRE 2688 16 2320 16
WIRE 3072 16 3072 -32
WIRE 3248 16 3248 -240
WIRE 3248 16 3072 16
WIRE 1120 64 1120 -288
WIRE 2784 64 2784 32
WIRE 3072 64 3072 16
WIRE 2320 80 2320 16
WIRE 2688 144 2688 16
WIRE 2736 144 2688 144
WIRE 2976 144 2976 -112
WIRE 3024 144 2976 144
WIRE 1120 192 1120 144
WIRE 2320 192 2320 160
WIRE 2320 192 1120 192
WIRE 2784 192 2784 160
WIRE 2784 192 2320 192
WIRE 3072 192 3072 160
WIRE 3072 192 2784 192
WIRE 3648 192 3648 -32
WIRE 3648 192 3072 192
WIRE 3904 192 3904 -32
WIRE 3904 192 3648 192
WIRE 4368 192 4368 -32
WIRE 4368 192 3904 192
WIRE 1120 208 1120 192
FLAG 1120 208 0
SYMBOL voltage 1120 48 R0
WINDOW 123 0 0 Left 0
WINDOW 39 0 0 Left 0
SYMATTR InstName ContactWire
SYMATTR Value 1000
SYMBOL Misc\\NIGBT 3168 -240 R270
SYMATTR InstName Z1
SYMATTR Value irg4ph50s
SYMATTR Prefix X
SYMBOL ind 3872 -304 R90
WINDOW 0 5 56 VBottom 2
WINDOW 3 32 56 VTop 2
SYMATTR InstName L1
SYMATTR Value 0.01
SYMBOL schottky 3664 -32 R180
WINDOW 0 24 64 Left 2
WINDOW 3 24 0 Invisible 2
SYMATTR InstName D1
SYMATTR Value RBR30T60A
SYMATTR Description Diode
SYMATTR Type diode
SYMBOL res 4352 -128 R0
SYMATTR InstName Load
SYMATTR Value 0.576
SYMBOL voltage 2320 64 R0
WINDOW 123 0 0 Left 0
WINDOW 39 0 0 Left 0
SYMATTR InstName Controller
SYMATTR Value PULSE(0 100 0.1 0 0 1u 50u)
SYMBOL cap 3888 -96 R0
SYMATTR InstName C1
SYMATTR Value 0.01
SYMBOL nmos 3024 64 R0
SYMATTR InstName M1
SYMBOL pmos 3024 -32 M180
SYMATTR InstName M2
SYMBOL nmos 2736 64 R0
SYMATTR InstName M3
SYMBOL res 2768 -272 R0
SYMATTR InstName R1
SYMATTR Value 100k
SYMBOL res 2768 -64 R0
SYMATTR InstName R2
SYMATTR Value 1k
TEXT 1040 240 Left 2 !.tran 0.4 startup
TEXT 1040 264 Left 2 !.inc irg4ph50s.spi
