Version 4
SHEET 1 5120 680
WIRE 2544 -288 2032 -288
WIRE 3024 -288 2640 -288
WIRE 3152 -288 3024 -288
WIRE 3280 -288 3232 -288
WIRE 3424 -288 3280 -288
WIRE 3424 -112 3424 -288
WIRE 3024 -96 3024 -288
WIRE 3280 -96 3280 -288
WIRE 2624 48 2624 -240
WIRE 2032 64 2032 -288
WIRE 2032 192 2032 144
WIRE 2624 192 2624 128
WIRE 2624 192 2032 192
WIRE 3024 192 3024 -32
WIRE 3024 192 2624 192
WIRE 3280 192 3280 -32
WIRE 3280 192 3024 192
WIRE 3424 192 3424 -32
WIRE 3424 192 3280 192
WIRE 2032 208 2032 192
FLAG 2032 208 0
SYMBOL voltage 2032 48 R0
WINDOW 123 0 0 Left 0
WINDOW 39 0 0 Left 0
SYMATTR InstName ContactWire
SYMATTR Value 1000
SYMBOL Misc\\NIGBT 2544 -240 R270
SYMATTR InstName Z1
SYMATTR Value irg4pc50w
SYMATTR Prefix X
SYMBOL ind 3248 -304 R90
WINDOW 0 5 56 VBottom 2
WINDOW 3 32 56 VTop 2
SYMATTR InstName L1
SYMATTR Value 0.01
SYMBOL schottky 3040 -32 R180
WINDOW 0 24 64 Left 2
WINDOW 3 24 0 Invisible 2
SYMATTR InstName D1
SYMATTR Value RBR30T60A
SYMATTR Description Diode
SYMATTR Type diode
SYMBOL res 3408 -128 R0
SYMATTR InstName Load
SYMATTR Value 0.576
SYMBOL voltage 2624 32 R0
WINDOW 123 0 0 Left 0
WINDOW 39 0 0 Left 0
SYMATTR InstName Controller
SYMATTR Value PULSE(0 1000 0.1 0 0 1u 50u)
SYMBOL cap 3264 -96 R0
SYMATTR InstName C1
SYMATTR Value 0.01
TEXT 1952 240 Left 2 !.tran 0.4 startup
TEXT 1952 264 Left 2 !.inc irg4pc50w.spi
