Version 4
SHEET 1 5544 1044
WIRE 3584 -432 1024 -432
WIRE 3776 -432 3680 -432
WIRE 3840 -432 3776 -432
WIRE 3968 -432 3920 -432
WIRE 4080 -432 3968 -432
WIRE 4256 -432 4080 -432
WIRE 1344 -288 1200 -288
WIRE 1488 -288 1408 -288
WIRE 1664 -288 1488 -288
WIRE 1920 -288 1664 -288
WIRE 2096 -288 1920 -288
WIRE 3296 -256 1856 -256
WIRE 3504 -256 3296 -256
WIRE 1664 -240 1664 -288
WIRE 2096 -240 2096 -288
WIRE 4080 -240 4080 -432
WIRE 2672 -224 2272 -224
WIRE 3136 -224 2672 -224
WIRE 1488 -192 1488 -288
WIRE 1920 -192 1920 -288
WIRE 3296 -192 3296 -256
WIRE 2672 -176 2672 -224
WIRE 3136 -176 3136 -224
WIRE 3504 -176 3504 -256
WIRE 3088 -160 3024 -160
WIRE 3456 -160 3392 -160
WIRE 1664 -112 1664 -160
WIRE 2096 -112 2096 -160
WIRE 4256 -112 4256 -432
WIRE 3776 -96 3776 -432
WIRE 3968 -96 3968 -432
WIRE 3296 -80 3296 -112
WIRE 3392 -80 3392 -160
WIRE 3392 -80 3296 -80
WIRE 2560 -64 2288 -64
WIRE 2672 -48 2672 -96
WIRE 3024 -48 3024 -160
WIRE 3024 -48 2672 -48
WIRE 3136 -48 3136 -80
WIRE 3216 -48 3136 -48
WIRE 3504 -48 3504 -80
WIRE 3664 -48 3664 -384
WIRE 3664 -48 3504 -48
WIRE 1488 -32 1488 -112
WIRE 1616 -32 1488 -32
WIRE 1920 -32 1920 -112
WIRE 2048 -32 1920 -32
WIRE 3136 -32 3136 -48
WIRE 3504 -32 3504 -48
WIRE 2560 -16 2560 -64
WIRE 1664 0 1664 -16
WIRE 1856 0 1856 -256
WIRE 1856 0 1664 0
WIRE 2096 16 2096 -16
WIRE 2272 16 2272 -224
WIRE 2272 16 2096 16
WIRE 4080 16 4080 -160
WIRE 1664 32 1664 0
WIRE 2096 32 2096 16
WIRE 1488 48 1488 -32
WIRE 1920 48 1920 -32
WIRE 3024 48 3024 -48
WIRE 3088 48 3024 48
WIRE 3296 48 3296 -80
WIRE 3392 48 3392 -80
WIRE 3456 48 3392 48
WIRE 1024 64 1024 -432
WIRE 1200 64 1200 -288
WIRE 2672 64 2672 -48
WIRE 2288 80 2288 -64
WIRE 2560 112 2560 64
WIRE 2608 112 2560 112
WIRE 3216 128 3216 -48
WIRE 3248 128 3216 128
WIRE 1024 192 1024 144
WIRE 1200 192 1200 144
WIRE 1200 192 1024 192
WIRE 1488 192 1488 112
WIRE 1488 192 1200 192
WIRE 1664 192 1664 96
WIRE 1664 192 1488 192
WIRE 1920 192 1920 112
WIRE 1920 192 1664 192
WIRE 2096 192 2096 96
WIRE 2096 192 1920 192
WIRE 2288 192 2288 160
WIRE 2288 192 2096 192
WIRE 2672 192 2672 160
WIRE 2672 192 2288 192
WIRE 3136 192 3136 64
WIRE 3136 192 2672 192
WIRE 3296 192 3296 144
WIRE 3296 192 3136 192
WIRE 3504 192 3504 64
WIRE 3504 192 3296 192
WIRE 3776 192 3776 -32
WIRE 3776 192 3504 192
WIRE 3968 192 3968 -32
WIRE 3968 192 3776 192
WIRE 4080 192 4080 96
WIRE 4080 192 3968 192
WIRE 4256 192 4256 -32
WIRE 4256 192 4080 192
WIRE 1024 208 1024 192
FLAG 1024 208 0
SYMBOL voltage 1024 48 R0
WINDOW 123 0 0 Left 0
WINDOW 39 0 0 Left 0
SYMATTR InstName ContactWire
SYMATTR Value 1000
SYMBOL Misc\\NIGBT 3584 -384 R270
SYMATTR InstName Z1
SYMATTR Value irg4ph50s
SYMATTR Prefix X
SYMBOL ind 3936 -448 R90
WINDOW 0 5 56 VBottom 2
WINDOW 3 32 56 VTop 2
SYMATTR InstName L1
SYMATTR Value 0.01
SYMATTR SpiceLine Rser=23m
SYMBOL schottky 3792 -32 R180
WINDOW 0 24 64 Left 2
WINDOW 3 24 0 Invisible 2
SYMATTR InstName D1
SYMATTR Value RBR30T60A
SYMATTR Description Diode
SYMATTR Type diode
SYMBOL res 4240 -128 R0
SYMATTR InstName Load
SYMATTR Value 0.576
SYMBOL voltage 2288 64 R0
WINDOW 123 0 0 Left 0
WINDOW 39 0 0 Left 0
SYMATTR InstName Controller
SYMATTR Value PULSE(0 5 0.01 0 0 1u 10.16u)
SYMBOL cap 3952 -96 R0
SYMATTR InstName C1
SYMATTR Value 0.01
SYMATTR SpiceLine Rser=20m
SYMBOL nmos 3456 -32 R0
SYMATTR InstName M1
SYMBOL pmos 3456 -80 M180
SYMATTR InstName M2
SYMBOL nmos 1616 -112 R0
SYMATTR InstName M4
SYMATTR Value STW11NM80
SYMBOL res 1472 -208 R0
SYMATTR InstName R7
SYMATTR Value 10Meg
SYMBOL cap 1648 32 R0
SYMATTR InstName C2
SYMATTR Value 10µ
SYMBOL res 3280 -208 R0
SYMATTR InstName R3
SYMATTR Value 47k
SYMBOL npn 2608 64 R0
SYMATTR InstName Q1
SYMATTR Value 2N2222
SYMBOL res 2544 -32 R0
SYMATTR InstName R11
SYMATTR Value 220
SYMBOL schottky 1344 -272 R270
WINDOW 0 32 32 VTop 2
WINDOW 3 0 32 VBottom 2
SYMATTR InstName D2
SYMATTR Value RBR30T60A
SYMATTR Description Diode
SYMATTR Type diode
SYMBOL res 4064 -256 R0
SYMATTR InstName R14
SYMATTR Value 900k
SYMBOL res 4064 0 R0
SYMATTR InstName R15
SYMATTR Value 100k
SYMBOL diode 1504 112 R180
WINDOW 0 24 64 Left 2
WINDOW 3 24 0 Left 2
SYMATTR InstName D3
SYMATTR Value RFN20T2D
SYMATTR Description Zener Diode
SYMATTR Type zener
SYMBOL voltage 1200 48 R0
WINDOW 123 0 0 Left 0
WINDOW 39 0 0 Left 0
SYMATTR InstName ContactWire1
SYMATTR Value 700
SYMBOL res 1648 -256 R0
SYMATTR InstName R1
SYMATTR Value 100
SYMBOL nmos 2048 -112 R0
SYMATTR InstName M3
SYMATTR Value STW11NM80
SYMBOL res 1904 -208 R0
SYMATTR InstName R2
SYMATTR Value 10Meg
SYMBOL cap 2080 32 R0
SYMATTR InstName C3
SYMATTR Value 10µ
SYMBOL schottky 1936 112 R180
WINDOW 0 24 64 Left 2
WINDOW 3 24 0 Left 2
SYMATTR InstName D4
SYMATTR Value RBR3L40C
SYMATTR Description Zener Diode
SYMATTR Type zener
SYMBOL res 2080 -256 R0
SYMATTR InstName R4
SYMATTR Value 100
SYMBOL nmos 3248 48 R0
SYMATTR InstName M5
SYMBOL nmos 3088 -32 R0
SYMATTR InstName M6
SYMBOL pmos 3088 -80 M180
SYMATTR InstName M7
SYMBOL res 2656 -192 R0
SYMATTR InstName R5
SYMATTR Value 100
TEXT 952 248 Left 2 !.tran 0.1 startup
TEXT 952 280 Left 2 !.inc irg4ph50s.spi\n.inc sct2280ke.spi\n.inc FQB1P50.spi\n.inc FDPF3N50NZ.spi\n.inc FQP3P50.spi\n.inc C2M0280120D.spi\n.inc OptiMOS3_250V_LTSpice.spi\n.inc FDH15N50.spi
