Version 4
SHEET 1 5544 1044
WIRE 1184 -432 976 -432
WIRE 3184 -432 1184 -432
WIRE 3376 -432 3280 -432
WIRE 3440 -432 3376 -432
WIRE 3568 -432 3520 -432
WIRE 3680 -432 3568 -432
WIRE 3856 -432 3680 -432
WIRE 1184 -400 1184 -432
WIRE 1184 -288 1184 -336
WIRE 1360 -288 1184 -288
WIRE 1632 -288 1360 -288
WIRE 1808 -288 1632 -288
WIRE 2896 -256 1520 -256
WIRE 3104 -256 2896 -256
WIRE 3680 -240 3680 -432
WIRE 2512 -224 1968 -224
WIRE 2720 -224 2512 -224
WIRE 1184 -192 1184 -288
WIRE 1632 -192 1632 -288
WIRE 2512 -192 2512 -224
WIRE 2896 -192 2896 -256
WIRE 2720 -176 2720 -224
WIRE 3104 -176 3104 -256
WIRE 2672 -160 2608 -160
WIRE 3056 -160 2992 -160
WIRE 1360 -112 1360 -288
WIRE 1808 -112 1808 -288
WIRE 3856 -112 3856 -432
WIRE 3376 -96 3376 -432
WIRE 3568 -96 3568 -432
WIRE 2512 -80 2512 -112
WIRE 2608 -80 2608 -160
WIRE 2608 -80 2512 -80
WIRE 2896 -80 2896 -112
WIRE 2992 -80 2992 -160
WIRE 2992 -80 2896 -80
WIRE 2400 -64 2080 -64
WIRE 2720 -48 2720 -80
WIRE 2816 -48 2720 -48
WIRE 3104 -48 3104 -80
WIRE 3264 -48 3264 -384
WIRE 3264 -48 3104 -48
WIRE 1184 -32 1184 -112
WIRE 1312 -32 1184 -32
WIRE 1632 -32 1632 -112
WIRE 1760 -32 1632 -32
WIRE 2720 -32 2720 -48
WIRE 3104 -32 3104 -48
WIRE 2400 -16 2400 -64
WIRE 1360 16 1360 -16
WIRE 1408 16 1360 16
WIRE 1520 16 1520 -256
WIRE 1520 16 1488 16
WIRE 1808 16 1808 -16
WIRE 1856 16 1808 16
WIRE 1968 16 1968 -224
WIRE 1968 16 1936 16
WIRE 3680 16 3680 -160
WIRE 1520 32 1520 16
WIRE 1968 32 1968 16
WIRE 1184 48 1184 -32
WIRE 1360 48 1360 16
WIRE 1632 48 1632 -32
WIRE 1808 48 1808 16
WIRE 2608 48 2608 -80
WIRE 2672 48 2608 48
WIRE 2992 48 2992 -80
WIRE 3056 48 2992 48
WIRE 976 64 976 -432
WIRE 2512 64 2512 -80
WIRE 2896 64 2896 -80
WIRE 2080 80 2080 -64
WIRE 2400 112 2400 64
WIRE 2448 112 2400 112
WIRE 2816 144 2816 -48
WIRE 2848 144 2816 144
WIRE 976 192 976 144
WIRE 1184 192 1184 112
WIRE 1184 192 976 192
WIRE 1360 192 1360 128
WIRE 1360 192 1184 192
WIRE 1520 192 1520 96
WIRE 1520 192 1360 192
WIRE 1632 192 1632 112
WIRE 1632 192 1520 192
WIRE 1808 192 1808 128
WIRE 1808 192 1632 192
WIRE 1968 192 1968 96
WIRE 1968 192 1808 192
WIRE 2080 192 2080 160
WIRE 2080 192 1968 192
WIRE 2512 192 2512 160
WIRE 2512 192 2080 192
WIRE 2720 192 2720 64
WIRE 2720 192 2512 192
WIRE 2896 192 2896 160
WIRE 2896 192 2720 192
WIRE 3104 192 3104 64
WIRE 3104 192 2896 192
WIRE 3376 192 3376 -32
WIRE 3376 192 3104 192
WIRE 3568 192 3568 -32
WIRE 3568 192 3376 192
WIRE 3680 192 3680 96
WIRE 3680 192 3568 192
WIRE 3856 192 3856 -32
WIRE 3856 192 3680 192
WIRE 976 208 976 192
FLAG 976 208 0
SYMBOL voltage 976 48 R0
WINDOW 123 0 0 Left 0
WINDOW 39 0 0 Left 0
SYMATTR InstName ContactWire
SYMATTR Value 1000
SYMBOL Misc\\NIGBT 3184 -384 R270
SYMATTR InstName Z1
SYMATTR Value irg4ph50s
SYMATTR Prefix X
SYMBOL ind 3536 -448 R90
WINDOW 0 5 56 VBottom 2
WINDOW 3 32 56 VTop 2
SYMATTR InstName L1
SYMATTR Value 0.01
SYMBOL schottky 3392 -32 R180
WINDOW 0 24 64 Left 2
WINDOW 3 24 0 Invisible 2
SYMATTR InstName D1
SYMATTR Value RBR30T60A
SYMATTR Description Diode
SYMATTR Type diode
SYMBOL res 3840 -128 R0
SYMATTR InstName Load
SYMATTR Value 0.576
SYMBOL voltage 2080 64 R0
WINDOW 123 0 0 Left 0
WINDOW 39 0 0 Left 0
SYMATTR InstName Controller
SYMATTR Value PULSE(0 5 0.01 0 0 1u 9.07u)
SYMBOL cap 3552 -96 R0
SYMATTR InstName C1
SYMATTR Value 0.01
SYMBOL nmos 3056 -32 R0
SYMATTR InstName M1
SYMBOL pmos 3056 -80 M180
SYMATTR InstName M2
SYMBOL nmos 1312 -112 R0
SYMATTR InstName M4
SYMBOL res 1344 32 R0
SYMATTR InstName R5
SYMATTR Value 10k
SYMBOL res 1168 -208 R0
SYMATTR InstName R7
SYMATTR Value 22Meg
SYMBOL cap 1504 32 R0
SYMATTR InstName C2
SYMATTR Value 10µ
SYMBOL res 1504 0 R90
WINDOW 0 0 56 VBottom 2
WINDOW 3 32 56 VTop 2
SYMATTR InstName R1
SYMATTR Value 10
SYMBOL nmos 2848 64 R0
SYMATTR InstName M3
SYMBOL res 2880 -208 R0
SYMATTR InstName R3
SYMATTR Value 100k
SYMBOL nmos 1760 -112 R0
SYMATTR InstName M5
SYMBOL res 1792 32 R0
SYMATTR InstName R2
SYMATTR Value 10k
SYMBOL res 1616 -208 R0
SYMATTR InstName R8
SYMATTR Value 22Meg
SYMBOL cap 1952 32 R0
SYMATTR InstName C3
SYMATTR Value 10µ
SYMBOL res 1952 0 R90
WINDOW 0 0 56 VBottom 2
WINDOW 3 32 56 VTop 2
SYMATTR InstName R9
SYMATTR Value 10
SYMBOL nmos 2672 -32 R0
SYMATTR InstName M6
SYMBOL pmos 2672 -80 M180
SYMATTR InstName M7
SYMBOL res 2496 -208 R0
SYMATTR InstName R10
SYMATTR Value 100k
SYMBOL npn 2448 64 R0
SYMATTR InstName Q1
SYMATTR Value 2N2222
SYMBOL res 2384 -32 R0
SYMATTR InstName R11
SYMATTR Value 4700
SYMBOL schottky 1168 -400 R0
SYMATTR InstName D2
SYMATTR Value RBR30T60A
SYMATTR Description Diode
SYMATTR Type diode
SYMBOL res 3664 -256 R0
SYMATTR InstName R14
SYMATTR Value 900k
SYMBOL res 3664 0 R0
SYMATTR InstName R15
SYMATTR Value 100k
SYMBOL diode 1200 112 R180
WINDOW 0 24 64 Left 2
WINDOW 3 24 0 Left 2
SYMATTR InstName D3
SYMATTR Value RFN20T2D
SYMATTR Description Zener Diode
SYMATTR Type zener
SYMBOL schottky 1648 112 R180
WINDOW 0 24 64 Left 2
WINDOW 3 24 0 Left 2
SYMATTR InstName D4
SYMATTR Value RBR30T40A
SYMATTR Description Zener Diode
SYMATTR Type zener
TEXT 1040 240 Left 2 !.tran 0.1 startup
TEXT 1040 264 Left 2 !.inc irg4ph50s.spi\n.inc sct2280ke.spi\n.inc FQB1P50.spi
