Version 4
SHEET 1 5120 680
WIRE 1360 -288 1120 -288
WIRE 3168 -288 1360 -288
WIRE 3648 -288 3264 -288
WIRE 3776 -288 3648 -288
WIRE 3904 -288 3856 -288
WIRE 4368 -288 3904 -288
WIRE 2816 -256 1488 -256
WIRE 3088 -256 2816 -256
WIRE 1360 -224 1360 -288
WIRE 2816 -224 2816 -256
WIRE 3088 -176 3088 -256
WIRE 3040 -160 2976 -160
WIRE 4368 -112 4368 -288
WIRE 2816 -96 2816 -144
WIRE 2976 -96 2976 -160
WIRE 2976 -96 2816 -96
WIRE 3648 -96 3648 -288
WIRE 3904 -96 3904 -288
WIRE 2816 -64 2816 -96
WIRE 2688 -48 2320 -48
WIRE 3088 -48 3088 -80
WIRE 3248 -48 3248 -240
WIRE 3248 -48 3088 -48
WIRE 1360 -32 1360 -144
WIRE 1488 -32 1488 -256
WIRE 1488 -32 1360 -32
WIRE 3088 -32 3088 -48
WIRE 1360 48 1360 -32
WIRE 1488 48 1488 -32
WIRE 2976 48 2976 -96
WIRE 3040 48 2976 48
WIRE 1120 64 1120 -288
WIRE 2816 64 2816 16
WIRE 2320 80 2320 -48
WIRE 2688 144 2688 -48
WIRE 2768 144 2688 144
WIRE 1120 192 1120 144
WIRE 1360 192 1360 128
WIRE 1360 192 1120 192
WIRE 1488 192 1488 112
WIRE 1488 192 1360 192
WIRE 2320 192 2320 160
WIRE 2320 192 1488 192
WIRE 2816 192 2816 160
WIRE 2816 192 2320 192
WIRE 3088 192 3088 64
WIRE 3088 192 2816 192
WIRE 3648 192 3648 -32
WIRE 3648 192 3088 192
WIRE 3904 192 3904 -32
WIRE 3904 192 3648 192
WIRE 4368 192 4368 -32
WIRE 4368 192 3904 192
WIRE 1120 208 1120 192
FLAG 1120 208 0
SYMBOL voltage 1120 48 R0
WINDOW 123 0 0 Left 0
WINDOW 39 0 0 Left 0
SYMATTR InstName ContactWire
SYMATTR Value 1000
SYMBOL Misc\\NIGBT 3168 -240 R270
SYMATTR InstName Z1
SYMATTR Value irg4ph50s
SYMATTR Prefix X
SYMBOL ind 3872 -304 R90
WINDOW 0 5 56 VBottom 2
WINDOW 3 32 56 VTop 2
SYMATTR InstName L1
SYMATTR Value 0.01
SYMBOL schottky 3664 -32 R180
WINDOW 0 24 64 Left 2
WINDOW 3 24 0 Invisible 2
SYMATTR InstName D1
SYMATTR Value RBR30T60A
SYMATTR Description Diode
SYMATTR Type diode
SYMBOL res 4352 -128 R0
SYMATTR InstName Load
SYMATTR Value 0.576
SYMBOL voltage 2320 64 R0
WINDOW 123 0 0 Left 0
WINDOW 39 0 0 Left 0
SYMATTR InstName Controller
SYMATTR Value PULSE(0 100 0.2 0 0 1u 10u)
SYMBOL cap 3888 -96 R0
SYMATTR InstName C1
SYMATTR Value 0.01
SYMBOL res 1344 -240 R0
SYMATTR InstName R1
SYMATTR Value 220k
SYMBOL res 1344 32 R0
SYMATTR InstName R2
SYMATTR Value 100k
SYMBOL nmos 3040 -32 R0
SYMATTR InstName M1
SYMBOL pmos 3040 -80 M180
SYMATTR InstName M2
SYMBOL cap 1472 48 R0
SYMATTR InstName C2
SYMATTR Value 1µ
SYMBOL nmos 2768 64 R0
SYMATTR InstName M3
SYMBOL res 2800 -240 R0
SYMATTR InstName R3
SYMATTR Value 100k
SYMBOL res 2800 -80 R0
SYMATTR InstName R4
SYMATTR Value 1k
TEXT 1040 240 Left 2 !.tran 0.4 startup
TEXT 1040 264 Left 2 !.inc irg4ph50s.spi
